Data/networks/opendssNetworks/network_3/Feeder_5/Loads - Copy.txt
New Load.LOAD1 Phases=1 Bus1=130.3 kV=0.23 kW=1 PF=0.95
New Load.LOAD2 Phases=1 Bus1=137.2 kV=0.23 kW=1 PF=0.95
New Load.LOAD3 Phases=1 Bus1=149.2 kV=0.23 kW=1 PF=0.95
New Load.LOAD4 Phases=1 Bus1=218.1 kV=0.23 kW=1 PF=0.95
New Load.LOAD5 Phases=1 Bus1=226.3 kV=0.23 kW=1 PF=0.95
New Load.LOAD6 Phases=1 Bus1=230.1 kV=0.23 kW=1 PF=0.95
New Load.LOAD7 Phases=1 Bus1=234.1 kV=0.23 kW=1 PF=0.95
New Load.LOAD8 Phases=1 Bus1=239.3 kV=0.23 kW=1 PF=0.95
New Load.LOAD9 Phases=1 Bus1=242.2 kV=0.23 kW=1 PF=0.95
New Load.LOAD10 Phases=1 Bus1=249.1 kV=0.23 kW=1 PF=0.95
New Load.LOAD11 Phases=1 Bus1=268.3 kV=0.23 kW=1 PF=0.95
New Load.LOAD12 Phases=1 Bus1=275.3 kV=0.23 kW=1 PF=0.95
New Load.LOAD13 Phases=1 Bus1=284.2 kV=0.23 kW=1 PF=0.95
New Load.LOAD14 Phases=1 Bus1=292.2 kV=0.23 kW=1 PF=0.95
New Load.LOAD15 Phases=1 Bus1=306.1 kV=0.23 kW=1 PF=0.95
New Load.LOAD16 Phases=1 Bus1=309.1 kV=0.23 kW=1 PF=0.95
New Load.LOAD17 Phases=1 Bus1=312.3 kV=0.23 kW=1 PF=0.95
New Load.LOAD18 Phases=1 Bus1=313.3 kV=0.23 kW=1 PF=0.95
New Load.LOAD19 Phases=1 Bus1=315.1 kV=0.23 kW=1 PF=0.95
New Load.LOAD20 Phases=1 Bus1=316.1 kV=0.23 kW=1 PF=0.95
New Load.LOAD21 Phases=1 Bus1=339.1 kV=0.23 kW=1 PF=0.95
